489

Pd    -13.614999999999998     -1.945000000000000      0.000000000000000
Pd    -13.614999999999998      0.000000000000000     -1.945000000000000
Pd    -15.559999999999999      0.000000000000000      0.000000000000000
Pd    -13.614999999999998      0.000000000000000      1.945000000000000
Pd    -13.614999999999998      1.945000000000000      0.000000000000000
Pd     -9.725000000000000     -5.834999999999999      0.000000000000000
Pd    -11.669999999999998     -1.945000000000000     -1.945000000000000
Pd     -9.725000000000000     -3.889999999999999     -1.945000000000000
Pd     -9.725000000000000     -1.945000000000000     -3.889999999999999
Pd    -11.669999999999998     -3.889999999999999      0.000000000000000
Pd    -11.669999999999998     -1.945000000000000      1.945000000000000
Pd     -9.725000000000000     -3.889999999999999      1.945000000000000
Pd     -9.725000000000000     -1.945000000000000      0.000000000000000
Pd     -9.725000000000000     -1.945000000000000      3.890000000000001
Pd     -9.725000000000000      0.000000000000000     -5.834999999999999
Pd    -11.669999999999998      0.000000000000000     -3.889999999999999
Pd    -11.669999999999998      1.945000000000000     -1.945000000000000
Pd     -9.725000000000000      0.000000000000000     -1.945000000000000
Pd     -9.725000000000000      1.945000000000000     -3.889999999999999
Pd    -11.669999999999998      0.000000000000000      0.000000000000000
Pd    -11.669999999999998      1.945000000000000      1.945000000000000
Pd     -9.725000000000000      0.000000000000000      1.945000000000000
Pd     -9.725000000000000      1.945000000000000      0.000000000000000
Pd    -11.669999999999998      0.000000000000000      3.890000000000001
Pd     -9.725000000000000      0.000000000000000      5.835000000000001
Pd     -9.725000000000000      1.945000000000000      3.890000000000001
Pd     -9.725000000000000      3.890000000000001     -1.945000000000000
Pd    -11.669999999999998      3.890000000000001      0.000000000000000
Pd     -9.725000000000000      3.890000000000001      1.945000000000000
Pd     -9.725000000000000      5.835000000000001      0.000000000000000
Pd     -5.834999999999999     -9.725000000000000      0.000000000000000
Pd     -7.779999999999999     -5.834999999999999     -1.945000000000000
Pd     -5.834999999999999     -7.779999999999999     -1.945000000000000
Pd     -5.834999999999999     -5.834999999999999     -3.889999999999999
Pd     -7.779999999999999     -7.779999999999999      0.000000000000000
Pd     -7.779999999999999     -5.834999999999999      1.945000000000000
Pd     -5.834999999999999     -7.779999999999999      1.945000000000000
Pd     -5.834999999999999     -5.834999999999999      0.000000000000000
Pd     -5.834999999999999     -5.834999999999999      3.890000000000001
Pd     -7.779999999999999     -1.945000000000000     -5.834999999999999
Pd     -5.834999999999999     -3.889999999999999     -5.834999999999999
Pd     -5.834999999999999     -1.945000000000000     -7.779999999999999
Pd     -7.779999999999999     -3.889999999999999     -3.889999999999999
Pd     -7.779999999999999     -1.945000000000000     -1.945000000000000
Pd     -5.834999999999999     -3.889999999999999     -1.945000000000000
Pd     -5.834999999999999     -1.945000000000000     -3.889999999999999
Pd     -7.779999999999999     -3.889999999999999      0.000000000000000
Pd     -7.779999999999999     -1.945000000000000      1.945000000000000
Pd     -5.834999999999999     -3.889999999999999      1.945000000000000
Pd     -5.834999999999999     -1.945000000000000      0.000000000000000
Pd     -7.779999999999999     -3.889999999999999      3.890000000000001
Pd     -7.779999999999999     -1.945000000000000      5.835000000000001
Pd     -5.834999999999999     -3.889999999999999      5.835000000000001
Pd     -5.834999999999999     -1.945000000000000      3.890000000000001
Pd     -5.834999999999999     -1.945000000000000      7.780000000000001
Pd     -5.834999999999999      0.000000000000000     -9.725000000000000
Pd     -7.779999999999999      0.000000000000000     -7.779999999999999
Pd     -7.779999999999999      1.945000000000000     -5.834999999999999
Pd     -5.834999999999999      0.000000000000000     -5.834999999999999
Pd     -5.834999999999999      1.945000000000000     -7.779999999999999
Pd     -7.779999999999999      0.000000000000000     -3.889999999999999
Pd     -7.779999999999999      1.945000000000000     -1.945000000000000
Pd     -5.834999999999999      0.000000000000000     -1.945000000000000
Pd     -5.834999999999999      1.945000000000000     -3.889999999999999
Pd     -7.779999999999999      0.000000000000000      0.000000000000000
Pd     -7.779999999999999      1.945000000000000      1.945000000000000
Pd     -5.834999999999999      0.000000000000000      1.945000000000000
Pd     -5.834999999999999      1.945000000000000      0.000000000000000
Pd     -7.779999999999999      0.000000000000000      3.890000000000001
Pd     -7.779999999999999      1.945000000000000      5.835000000000001
Pd     -5.834999999999999      0.000000000000000      5.835000000000001
Pd     -5.834999999999999      1.945000000000000      3.890000000000001
Pd     -7.779999999999999      0.000000000000000      7.780000000000001
Pd     -5.834999999999999      0.000000000000000      9.725000000000001
Pd     -5.834999999999999      1.945000000000000      7.780000000000001
Pd     -5.834999999999999      3.890000000000001     -5.834999999999999
Pd     -7.779999999999999      3.890000000000001     -3.889999999999999
Pd     -7.779999999999999      5.835000000000001     -1.945000000000000
Pd     -5.834999999999999      3.890000000000001     -1.945000000000000
Pd     -5.834999999999999      5.835000000000001     -3.889999999999999
Pd     -7.779999999999999      3.890000000000001      0.000000000000000
Pd     -7.779999999999999      5.835000000000001      1.945000000000000
Pd     -5.834999999999999      3.890000000000001      1.945000000000000
Pd     -5.834999999999999      5.835000000000001      0.000000000000000
Pd     -7.779999999999999      3.890000000000001      3.890000000000001
Pd     -5.834999999999999      3.890000000000001      5.835000000000001
Pd     -5.834999999999999      5.835000000000001      3.890000000000001
Pd     -5.834999999999999      7.780000000000001     -1.945000000000000
Pd     -7.779999999999999      7.780000000000001      0.000000000000000
Pd     -5.834999999999999      7.780000000000001      1.945000000000000
Pd     -5.834999999999999      9.725000000000001      0.000000000000000
Pd     -1.945000000000000    -13.614999999999998      0.000000000000000
Pd     -3.889999999999999     -9.725000000000000     -1.945000000000000
Pd     -1.945000000000000    -11.669999999999998     -1.945000000000000
Pd     -1.945000000000000     -9.725000000000000     -3.889999999999999
Pd     -3.889999999999999    -11.669999999999998      0.000000000000000
Pd     -3.889999999999999     -9.725000000000000      1.945000000000000
Pd     -1.945000000000000    -11.669999999999998      1.945000000000000
Pd     -1.945000000000000     -9.725000000000000      0.000000000000000
Pd     -1.945000000000000     -9.725000000000000      3.890000000000001
Pd     -3.889999999999999     -5.834999999999999     -5.834999999999999
Pd     -1.945000000000000     -7.779999999999999     -5.834999999999999
Pd     -1.945000000000000     -5.834999999999999     -7.779999999999999
Pd     -3.889999999999999     -7.779999999999999     -3.889999999999999
Pd     -3.889999999999999     -5.834999999999999     -1.945000000000000
Pd     -1.945000000000000     -7.779999999999999     -1.945000000000000
Pd     -1.945000000000000     -5.834999999999999     -3.889999999999999
Pd     -3.889999999999999     -7.779999999999999      0.000000000000000
Pd     -3.889999999999999     -5.834999999999999      1.945000000000000
Pd     -1.945000000000000     -7.779999999999999      1.945000000000000
Pd     -1.945000000000000     -5.834999999999999      0.000000000000000
Pd     -3.889999999999999     -7.779999999999999      3.890000000000001
Pd     -3.889999999999999     -5.834999999999999      5.835000000000001
Pd     -1.945000000000000     -7.779999999999999      5.835000000000001
Pd     -1.945000000000000     -5.834999999999999      3.890000000000001
Pd     -1.945000000000000     -5.834999999999999      7.780000000000001
Pd     -3.889999999999999     -1.945000000000000     -9.725000000000000
Pd     -1.945000000000000     -3.889999999999999     -9.725000000000000
Pd     -1.945000000000000     -1.945000000000000    -11.669999999999998
Pd     -3.889999999999999     -3.889999999999999     -7.779999999999999
Pd     -3.889999999999999     -1.945000000000000     -5.834999999999999
Pd     -1.945000000000000     -3.889999999999999     -5.834999999999999
Pd     -1.945000000000000     -1.945000000000000     -7.779999999999999
Pd     -3.889999999999999     -3.889999999999999     -3.889999999999999
Pd     -3.889999999999999     -1.945000000000000     -1.945000000000000
Pd     -1.945000000000000     -3.889999999999999     -1.945000000000000
Pd     -1.945000000000000     -1.945000000000000     -3.889999999999999
Pd     -3.889999999999999     -3.889999999999999      0.000000000000000
Pd     -3.889999999999999     -1.945000000000000      1.945000000000000
Pd     -1.945000000000000     -3.889999999999999      1.945000000000000
Pd     -1.945000000000000     -1.945000000000000      0.000000000000000
Pd     -3.889999999999999     -3.889999999999999      3.890000000000001
Pd     -3.889999999999999     -1.945000000000000      5.835000000000001
Pd     -1.945000000000000     -3.889999999999999      5.835000000000001
Pd     -1.945000000000000     -1.945000000000000      3.890000000000001
Pd     -3.889999999999999     -3.889999999999999      7.780000000000001
Pd     -3.889999999999999     -1.945000000000000      9.725000000000001
Pd     -1.945000000000000     -3.889999999999999      9.725000000000001
Pd     -1.945000000000000     -1.945000000000000      7.780000000000001
Pd     -1.945000000000000     -1.945000000000000     11.670000000000002
Pd     -1.945000000000000      0.000000000000000    -13.614999999999998
Pd     -3.889999999999999      0.000000000000000    -11.669999999999998
Pd     -3.889999999999999      1.945000000000000     -9.725000000000000
Pd     -1.945000000000000      0.000000000000000     -9.725000000000000
Pd     -1.945000000000000      1.945000000000000    -11.669999999999998
Pd     -3.889999999999999      0.000000000000000     -7.779999999999999
Pd     -3.889999999999999      1.945000000000000     -5.834999999999999
Pd     -1.945000000000000      0.000000000000000     -5.834999999999999
Pd     -1.945000000000000      1.945000000000000     -7.779999999999999
Pd     -3.889999999999999      0.000000000000000     -3.889999999999999
Pd     -3.889999999999999      1.945000000000000     -1.945000000000000
Pd     -1.945000000000000      0.000000000000000     -1.945000000000000
Pd     -1.945000000000000      1.945000000000000     -3.889999999999999
Pd     -3.889999999999999      0.000000000000000      0.000000000000000
Pd     -3.889999999999999      1.945000000000000      1.945000000000000
Pd     -1.945000000000000      0.000000000000000      1.945000000000000
Pd     -1.945000000000000      1.945000000000000      0.000000000000000
Pd     -3.889999999999999      0.000000000000000      3.890000000000001
Pd     -3.889999999999999      1.945000000000000      5.835000000000001
Pd     -1.945000000000000      0.000000000000000      5.835000000000001
Pd     -1.945000000000000      1.945000000000000      3.890000000000001
Pd     -3.889999999999999      0.000000000000000      7.780000000000001
Pd     -3.889999999999999      1.945000000000000      9.725000000000001
Pd     -1.945000000000000      0.000000000000000      9.725000000000001
Pd     -1.945000000000000      1.945000000000000      7.780000000000001
Pd     -3.889999999999999      0.000000000000000     11.670000000000002
Pd     -1.945000000000000      0.000000000000000     13.614999999999998
Pd     -1.945000000000000      1.945000000000000     11.670000000000002
Pd     -1.945000000000000      3.890000000000001     -9.725000000000000
Pd     -3.889999999999999      3.890000000000001     -7.779999999999999
Pd     -3.889999999999999      5.835000000000001     -5.834999999999999
Pd     -1.945000000000000      3.890000000000001     -5.834999999999999
Pd     -1.945000000000000      5.835000000000001     -7.779999999999999
Pd     -3.889999999999999      3.890000000000001     -3.889999999999999
Pd     -3.889999999999999      5.835000000000001     -1.945000000000000
Pd     -1.945000000000000      3.890000000000001     -1.945000000000000
Pd     -1.945000000000000      5.835000000000001     -3.889999999999999
Pd     -3.889999999999999      3.890000000000001      0.000000000000000
Pd     -3.889999999999999      5.835000000000001      1.945000000000000
Pd     -1.945000000000000      3.890000000000001      1.945000000000000
Pd     -1.945000000000000      5.835000000000001      0.000000000000000
Pd     -3.889999999999999      3.890000000000001      3.890000000000001
Pd     -3.889999999999999      5.835000000000001      5.835000000000001
Pd     -1.945000000000000      3.890000000000001      5.835000000000001
Pd     -1.945000000000000      5.835000000000001      3.890000000000001
Pd     -3.889999999999999      3.890000000000001      7.780000000000001
Pd     -1.945000000000000      3.890000000000001      9.725000000000001
Pd     -1.945000000000000      5.835000000000001      7.780000000000001
Pd     -1.945000000000000      7.780000000000001     -5.834999999999999
Pd     -3.889999999999999      7.780000000000001     -3.889999999999999
Pd     -3.889999999999999      9.725000000000001     -1.945000000000000
Pd     -1.945000000000000      7.780000000000001     -1.945000000000000
Pd     -1.945000000000000      9.725000000000001     -3.889999999999999
Pd     -3.889999999999999      7.780000000000001      0.000000000000000
Pd     -3.889999999999999      9.725000000000001      1.945000000000000
Pd     -1.945000000000000      7.780000000000001      1.945000000000000
Pd     -1.945000000000000      9.725000000000001      0.000000000000000
Pd     -3.889999999999999      7.780000000000001      3.890000000000001
Pd     -1.945000000000000      7.780000000000001      5.835000000000001
Pd     -1.945000000000000      9.725000000000001      3.890000000000001
Pd     -1.945000000000000     11.670000000000002     -1.945000000000000
Pd     -3.889999999999999     11.670000000000002      0.000000000000000
Pd     -1.945000000000000     11.670000000000002      1.945000000000000
Pd     -1.945000000000000     13.614999999999998      0.000000000000000
Pd      0.000000000000000    -13.614999999999998     -1.945000000000000
Pd      0.000000000000000    -15.559999999999999      0.000000000000000
Pd      0.000000000000000    -13.614999999999998      1.945000000000000
Pd      1.945000000000000    -13.614999999999998      0.000000000000000
Pd      0.000000000000000     -9.725000000000000     -5.834999999999999
Pd      0.000000000000000    -11.669999999999998     -3.889999999999999
Pd      0.000000000000000     -9.725000000000000     -1.945000000000000
Pd      1.945000000000000    -11.669999999999998     -1.945000000000000
Pd      1.945000000000000     -9.725000000000000     -3.889999999999999
Pd      0.000000000000000    -11.669999999999998      0.000000000000000
Pd      0.000000000000000     -9.725000000000000      1.945000000000000
Pd      1.945000000000000    -11.669999999999998      1.945000000000000
Pd      1.945000000000000     -9.725000000000000      0.000000000000000
Pd      0.000000000000000    -11.669999999999998      3.890000000000001
Pd      0.000000000000000     -9.725000000000000      5.835000000000001
Pd      1.945000000000000     -9.725000000000000      3.890000000000001
Pd      0.000000000000000     -5.834999999999999     -9.725000000000000
Pd      0.000000000000000     -7.779999999999999     -7.779999999999999
Pd      0.000000000000000     -5.834999999999999     -5.834999999999999
Pd      1.945000000000000     -7.779999999999999     -5.834999999999999
Pd      1.945000000000000     -5.834999999999999     -7.779999999999999
Pd      0.000000000000000     -7.779999999999999     -3.889999999999999
Pd      0.000000000000000     -5.834999999999999     -1.945000000000000
Pd      1.945000000000000     -7.779999999999999     -1.945000000000000
Pd      1.945000000000000     -5.834999999999999     -3.889999999999999
Pd      0.000000000000000     -7.779999999999999      0.000000000000000
Pd      0.000000000000000     -5.834999999999999      1.945000000000000
Pd      1.945000000000000     -7.779999999999999      1.945000000000000
Pd      1.945000000000000     -5.834999999999999      0.000000000000000
Pd      0.000000000000000     -7.779999999999999      3.890000000000001
Pd      0.000000000000000     -5.834999999999999      5.835000000000001
Pd      1.945000000000000     -7.779999999999999      5.835000000000001
Pd      1.945000000000000     -5.834999999999999      3.890000000000001
Pd      0.000000000000000     -7.779999999999999      7.780000000000001
Pd      0.000000000000000     -5.834999999999999      9.725000000000001
Pd      1.945000000000000     -5.834999999999999      7.780000000000001
Pd      0.000000000000000     -1.945000000000000    -13.614999999999998
Pd      0.000000000000000     -3.889999999999999    -11.669999999999998
Pd      0.000000000000000     -1.945000000000000     -9.725000000000000
Pd      1.945000000000000     -3.889999999999999     -9.725000000000000
Pd      1.945000000000000     -1.945000000000000    -11.669999999999998
Pd      0.000000000000000     -3.889999999999999     -7.779999999999999
Pd      0.000000000000000     -1.945000000000000     -5.834999999999999
Pd      1.945000000000000     -3.889999999999999     -5.834999999999999
Pd      1.945000000000000     -1.945000000000000     -7.779999999999999
Pd      0.000000000000000     -3.889999999999999     -3.889999999999999
Pd      0.000000000000000     -1.945000000000000     -1.945000000000000
Pd      1.945000000000000     -3.889999999999999     -1.945000000000000
Pd      1.945000000000000     -1.945000000000000     -3.889999999999999
Pd      0.000000000000000     -3.889999999999999      0.000000000000000
Pd      0.000000000000000     -1.945000000000000      1.945000000000000
Pd      1.945000000000000     -3.889999999999999      1.945000000000000
Pd      1.945000000000000     -1.945000000000000      0.000000000000000
Pd      0.000000000000000     -3.889999999999999      3.890000000000001
Pd      0.000000000000000     -1.945000000000000      5.835000000000001
Pd      1.945000000000000     -3.889999999999999      5.835000000000001
Pd      1.945000000000000     -1.945000000000000      3.890000000000001
Pd      0.000000000000000     -3.889999999999999      7.780000000000001
Pd      0.000000000000000     -1.945000000000000      9.725000000000001
Pd      1.945000000000000     -3.889999999999999      9.725000000000001
Pd      1.945000000000000     -1.945000000000000      7.780000000000001
Pd      0.000000000000000     -3.889999999999999     11.670000000000002
Pd      0.000000000000000     -1.945000000000000     13.614999999999998
Pd      1.945000000000000     -1.945000000000000     11.670000000000002
Pd      0.000000000000000      0.000000000000000    -15.559999999999999
Pd      0.000000000000000      1.945000000000000    -13.614999999999998
Pd      1.945000000000000      0.000000000000000    -13.614999999999998
Pd      0.000000000000000      0.000000000000000    -11.669999999999998
Pd      0.000000000000000      1.945000000000000     -9.725000000000000
Pd      1.945000000000000      0.000000000000000     -9.725000000000000
Pd      1.945000000000000      1.945000000000000    -11.669999999999998
Pd      0.000000000000000      0.000000000000000     -7.779999999999999
Pd      0.000000000000000      1.945000000000000     -5.834999999999999
Pd      1.945000000000000      0.000000000000000     -5.834999999999999
Pd      1.945000000000000      1.945000000000000     -7.779999999999999
Pd      0.000000000000000      0.000000000000000     -3.889999999999999
Pd      0.000000000000000      1.945000000000000     -1.945000000000000
Pd      1.945000000000000      0.000000000000000     -1.945000000000000
Pd      1.945000000000000      1.945000000000000     -3.889999999999999
Pd      0.000000000000000      0.000000000000000      0.000000000000000
Pd      0.000000000000000      1.945000000000000      1.945000000000000
Pd      1.945000000000000      0.000000000000000      1.945000000000000
Pd      1.945000000000000      1.945000000000000      0.000000000000000
Pd      0.000000000000000      0.000000000000000      3.890000000000001
Pd      0.000000000000000      1.945000000000000      5.835000000000001
Pd      1.945000000000000      0.000000000000000      5.835000000000001
Pd      1.945000000000000      1.945000000000000      3.890000000000001
Pd      0.000000000000000      0.000000000000000      7.780000000000001
Pd      0.000000000000000      1.945000000000000      9.725000000000001
Pd      1.945000000000000      0.000000000000000      9.725000000000001
Pd      1.945000000000000      1.945000000000000      7.780000000000001
Pd      0.000000000000000      0.000000000000000     11.670000000000002
Pd      0.000000000000000      1.945000000000000     13.614999999999998
Pd      1.945000000000000      0.000000000000000     13.614999999999998
Pd      1.945000000000000      1.945000000000000     11.670000000000002
Pd      0.000000000000000      0.000000000000000     15.559999999999999
Pd      0.000000000000000      3.890000000000001    -11.669999999999998
Pd      0.000000000000000      5.835000000000001     -9.725000000000000
Pd      1.945000000000000      3.890000000000001     -9.725000000000000
Pd      0.000000000000000      3.890000000000001     -7.779999999999999
Pd      0.000000000000000      5.835000000000001     -5.834999999999999
Pd      1.945000000000000      3.890000000000001     -5.834999999999999
Pd      1.945000000000000      5.835000000000001     -7.779999999999999
Pd      0.000000000000000      3.890000000000001     -3.889999999999999
Pd      0.000000000000000      5.835000000000001     -1.945000000000000
Pd      1.945000000000000      3.890000000000001     -1.945000000000000
Pd      1.945000000000000      5.835000000000001     -3.889999999999999
Pd      0.000000000000000      3.890000000000001      0.000000000000000
Pd      0.000000000000000      5.835000000000001      1.945000000000000
Pd      1.945000000000000      3.890000000000001      1.945000000000000
Pd      1.945000000000000      5.835000000000001      0.000000000000000
Pd      0.000000000000000      3.890000000000001      3.890000000000001
Pd      0.000000000000000      5.835000000000001      5.835000000000001
Pd      1.945000000000000      3.890000000000001      5.835000000000001
Pd      1.945000000000000      5.835000000000001      3.890000000000001
Pd      0.000000000000000      3.890000000000001      7.780000000000001
Pd      0.000000000000000      5.835000000000001      9.725000000000001
Pd      1.945000000000000      3.890000000000001      9.725000000000001
Pd      1.945000000000000      5.835000000000001      7.780000000000001
Pd      0.000000000000000      3.890000000000001     11.670000000000002
Pd      0.000000000000000      7.780000000000001     -7.779999999999999
Pd      0.000000000000000      9.725000000000001     -5.834999999999999
Pd      1.945000000000000      7.780000000000001     -5.834999999999999
Pd      0.000000000000000      7.780000000000001     -3.889999999999999
Pd      0.000000000000000      9.725000000000001     -1.945000000000000
Pd      1.945000000000000      7.780000000000001     -1.945000000000000
Pd      1.945000000000000      9.725000000000001     -3.889999999999999
Pd      0.000000000000000      7.780000000000001      0.000000000000000
Pd      0.000000000000000      9.725000000000001      1.945000000000000
Pd      1.945000000000000      7.780000000000001      1.945000000000000
Pd      1.945000000000000      9.725000000000001      0.000000000000000
Pd      0.000000000000000      7.780000000000001      3.890000000000001
Pd      0.000000000000000      9.725000000000001      5.835000000000001
Pd      1.945000000000000      7.780000000000001      5.835000000000001
Pd      1.945000000000000      9.725000000000001      3.890000000000001
Pd      0.000000000000000      7.780000000000001      7.780000000000001
Pd      0.000000000000000     11.670000000000002     -3.889999999999999
Pd      0.000000000000000     13.614999999999998     -1.945000000000000
Pd      1.945000000000000     11.670000000000002     -1.945000000000000
Pd      0.000000000000000     11.670000000000002      0.000000000000000
Pd      0.000000000000000     13.614999999999998      1.945000000000000
Pd      1.945000000000000     11.670000000000002      1.945000000000000
Pd      1.945000000000000     13.614999999999998      0.000000000000000
Pd      0.000000000000000     11.670000000000002      3.890000000000001
Pd      0.000000000000000     15.559999999999999      0.000000000000000
Pd      3.890000000000001     -9.725000000000000     -1.945000000000000
Pd      3.890000000000001    -11.669999999999998      0.000000000000000
Pd      3.890000000000001     -9.725000000000000      1.945000000000000
Pd      5.835000000000001     -9.725000000000000      0.000000000000000
Pd      3.890000000000001     -5.834999999999999     -5.834999999999999
Pd      3.890000000000001     -7.779999999999999     -3.889999999999999
Pd      3.890000000000001     -5.834999999999999     -1.945000000000000
Pd      5.835000000000001     -7.779999999999999     -1.945000000000000
Pd      5.835000000000001     -5.834999999999999     -3.889999999999999
Pd      3.890000000000001     -7.779999999999999      0.000000000000000
Pd      3.890000000000001     -5.834999999999999      1.945000000000000
Pd      5.835000000000001     -7.779999999999999      1.945000000000000
Pd      5.835000000000001     -5.834999999999999      0.000000000000000
Pd      3.890000000000001     -7.779999999999999      3.890000000000001
Pd      3.890000000000001     -5.834999999999999      5.835000000000001
Pd      5.835000000000001     -5.834999999999999      3.890000000000001
Pd      3.890000000000001     -1.945000000000000     -9.725000000000000
Pd      3.890000000000001     -3.889999999999999     -7.779999999999999
Pd      3.890000000000001     -1.945000000000000     -5.834999999999999
Pd      5.835000000000001     -3.889999999999999     -5.834999999999999
Pd      5.835000000000001     -1.945000000000000     -7.779999999999999
Pd      3.890000000000001     -3.889999999999999     -3.889999999999999
Pd      3.890000000000001     -1.945000000000000     -1.945000000000000
Pd      5.835000000000001     -3.889999999999999     -1.945000000000000
Pd      5.835000000000001     -1.945000000000000     -3.889999999999999
Pd      3.890000000000001     -3.889999999999999      0.000000000000000
Pd      3.890000000000001     -1.945000000000000      1.945000000000000
Pd      5.835000000000001     -3.889999999999999      1.945000000000000
Pd      5.835000000000001     -1.945000000000000      0.000000000000000
Pd      3.890000000000001     -3.889999999999999      3.890000000000001
Pd      3.890000000000001     -1.945000000000000      5.835000000000001
Pd      5.835000000000001     -3.889999999999999      5.835000000000001
Pd      5.835000000000001     -1.945000000000000      3.890000000000001
Pd      3.890000000000001     -3.889999999999999      7.780000000000001
Pd      3.890000000000001     -1.945000000000000      9.725000000000001
Pd      5.835000000000001     -1.945000000000000      7.780000000000001
Pd      3.890000000000001      0.000000000000000    -11.669999999999998
Pd      3.890000000000001      1.945000000000000     -9.725000000000000
Pd      5.835000000000001      0.000000000000000     -9.725000000000000
Pd      3.890000000000001      0.000000000000000     -7.779999999999999
Pd      3.890000000000001      1.945000000000000     -5.834999999999999
Pd      5.835000000000001      0.000000000000000     -5.834999999999999
Pd      5.835000000000001      1.945000000000000     -7.779999999999999
Pd      3.890000000000001      0.000000000000000     -3.889999999999999
Pd      3.890000000000001      1.945000000000000     -1.945000000000000
Pd      5.835000000000001      0.000000000000000     -1.945000000000000
Pd      5.835000000000001      1.945000000000000     -3.889999999999999
Pd      3.890000000000001      0.000000000000000      0.000000000000000
Pd      3.890000000000001      1.945000000000000      1.945000000000000
Pd      5.835000000000001      0.000000000000000      1.945000000000000
Pd      5.835000000000001      1.945000000000000      0.000000000000000
Pd      3.890000000000001      0.000000000000000      3.890000000000001
Pd      3.890000000000001      1.945000000000000      5.835000000000001
Pd      5.835000000000001      0.000000000000000      5.835000000000001
Pd      5.835000000000001      1.945000000000000      3.890000000000001
Pd      3.890000000000001      0.000000000000000      7.780000000000001
Pd      3.890000000000001      1.945000000000000      9.725000000000001
Pd      5.835000000000001      0.000000000000000      9.725000000000001
Pd      5.835000000000001      1.945000000000000      7.780000000000001
Pd      3.890000000000001      0.000000000000000     11.670000000000002
Pd      3.890000000000001      3.890000000000001     -7.779999999999999
Pd      3.890000000000001      5.835000000000001     -5.834999999999999
Pd      5.835000000000001      3.890000000000001     -5.834999999999999
Pd      3.890000000000001      3.890000000000001     -3.889999999999999
Pd      3.890000000000001      5.835000000000001     -1.945000000000000
Pd      5.835000000000001      3.890000000000001     -1.945000000000000
Pd      5.835000000000001      5.835000000000001     -3.889999999999999
Pd      3.890000000000001      3.890000000000001      0.000000000000000
Pd      3.890000000000001      5.835000000000001      1.945000000000000
Pd      5.835000000000001      3.890000000000001      1.945000000000000
Pd      5.835000000000001      5.835000000000001      0.000000000000000
Pd      3.890000000000001      3.890000000000001      3.890000000000001
Pd      3.890000000000001      5.835000000000001      5.835000000000001
Pd      5.835000000000001      3.890000000000001      5.835000000000001
Pd      5.835000000000001      5.835000000000001      3.890000000000001
Pd      3.890000000000001      3.890000000000001      7.780000000000001
Pd      3.890000000000001      7.780000000000001     -3.889999999999999
Pd      3.890000000000001      9.725000000000001     -1.945000000000000
Pd      5.835000000000001      7.780000000000001     -1.945000000000000
Pd      3.890000000000001      7.780000000000001      0.000000000000000
Pd      3.890000000000001      9.725000000000001      1.945000000000000
Pd      5.835000000000001      7.780000000000001      1.945000000000000
Pd      5.835000000000001      9.725000000000001      0.000000000000000
Pd      3.890000000000001      7.780000000000001      3.890000000000001
Pd      3.890000000000001     11.670000000000002      0.000000000000000
Pd      7.780000000000001     -5.834999999999999     -1.945000000000000
Pd      7.780000000000001     -7.779999999999999      0.000000000000000
Pd      7.780000000000001     -5.834999999999999      1.945000000000000
Pd      9.725000000000001     -5.834999999999999      0.000000000000000
Pd      7.780000000000001     -1.945000000000000     -5.834999999999999
Pd      7.780000000000001     -3.889999999999999     -3.889999999999999
Pd      7.780000000000001     -1.945000000000000     -1.945000000000000
Pd      9.725000000000001     -3.889999999999999     -1.945000000000000
Pd      9.725000000000001     -1.945000000000000     -3.889999999999999
Pd      7.780000000000001     -3.889999999999999      0.000000000000000
Pd      7.780000000000001     -1.945000000000000      1.945000000000000
Pd      9.725000000000001     -3.889999999999999      1.945000000000000
Pd      9.725000000000001     -1.945000000000000      0.000000000000000
Pd      7.780000000000001     -3.889999999999999      3.890000000000001
Pd      7.780000000000001     -1.945000000000000      5.835000000000001
Pd      9.725000000000001     -1.945000000000000      3.890000000000001
Pd      7.780000000000001      0.000000000000000     -7.779999999999999
Pd      7.780000000000001      1.945000000000000     -5.834999999999999
Pd      9.725000000000001      0.000000000000000     -5.834999999999999
Pd      7.780000000000001      0.000000000000000     -3.889999999999999
Pd      7.780000000000001      1.945000000000000     -1.945000000000000
Pd      9.725000000000001      0.000000000000000     -1.945000000000000
Pd      9.725000000000001      1.945000000000000     -3.889999999999999
Pd      7.780000000000001      0.000000000000000      0.000000000000000
Pd      7.780000000000001      1.945000000000000      1.945000000000000
Pd      9.725000000000001      0.000000000000000      1.945000000000000
Pd      9.725000000000001      1.945000000000000      0.000000000000000
Pd      7.780000000000001      0.000000000000000      3.890000000000001
Pd      7.780000000000001      1.945000000000000      5.835000000000001
Pd      9.725000000000001      0.000000000000000      5.835000000000001
Pd      9.725000000000001      1.945000000000000      3.890000000000001
Pd      7.780000000000001      0.000000000000000      7.780000000000001
Pd      7.780000000000001      3.890000000000001     -3.889999999999999
Pd      7.780000000000001      5.835000000000001     -1.945000000000000
Pd      9.725000000000001      3.890000000000001     -1.945000000000000
Pd      7.780000000000001      3.890000000000001      0.000000000000000
Pd      7.780000000000001      5.835000000000001      1.945000000000000
Pd      9.725000000000001      3.890000000000001      1.945000000000000
Pd      9.725000000000001      5.835000000000001      0.000000000000000
Pd      7.780000000000001      3.890000000000001      3.890000000000001
Pd      7.780000000000001      7.780000000000001      0.000000000000000
Pd     11.670000000000002     -1.945000000000000     -1.945000000000000
Pd     11.670000000000002     -3.889999999999999      0.000000000000000
Pd     11.670000000000002     -1.945000000000000      1.945000000000000
Pd     13.614999999999998     -1.945000000000000      0.000000000000000
Pd     11.670000000000002      0.000000000000000     -3.889999999999999
Pd     11.670000000000002      1.945000000000000     -1.945000000000000
Pd     13.614999999999998      0.000000000000000     -1.945000000000000
Pd     11.670000000000002      0.000000000000000      0.000000000000000
Pd     11.670000000000002      1.945000000000000      1.945000000000000
Pd     13.614999999999998      0.000000000000000      1.945000000000000
Pd     13.614999999999998      1.945000000000000      0.000000000000000
Pd     11.670000000000002      0.000000000000000      3.890000000000001
Pd     11.670000000000002      3.890000000000001      0.000000000000000
Pd     15.559999999999999      0.000000000000000      0.000000000000000
